Layer Pairs Export File for PCB: C:\Users\Flor\Documents\Capstone\HydroDynamixRepo\HydroDynamix\HANC_Digital\HANC_Digital.PcbDoc
LayersSetName=Top_Bot_Thru_Holes|DrillFile=hanc_digital.txt|DrillLayers=gtl,gbl
