Protel Design System Design Rule Check
PCB File : C:\Users\Flor\Documents\Capstone\HydroDynamixRepo\HydroDynamix\HANC_Analog\HANC_ANALOG.PcbDoc
Date     : 3/2/2017
Time     : 12:47:30 PM

Processing Rule : Modified Polygon (Allow modified: No), (Allow shelved: No)
Rule Violations :0

Processing Rule : Net Antennae (Tolerance=0mil) (All)
Rule Violations :0

Processing Rule : Silk to Silk (Clearance=10mil) (All),(All)
   Violation between Silk To Silk Clearance Constraint: (5.061mil < 10mil) Between Text "HP2" (2944.917mil,1690mil) on Top Overlay And Track (2712.79mil,1675.59mil)(3295.468mil,1675.59mil) on Top Overlay Silk Text to Silk Clearance [5.061mil]
   Violation between Silk To Silk Clearance Constraint: (8.506mil < 10mil) Between Text "HP2" (2944.917mil,1690mil) on Top Overlay And Track (2712.79mil,1675.59mil)(3295.468mil,1675.59mil) on Top Overlay Silk Text to Silk Clearance [8.506mil]
   Violation between Silk To Silk Clearance Constraint: (5.848mil < 10mil) Between Text "HP4" (5398.568mil,1690.787mil) on Top Overlay And Track (5207.23mil,1675.59mil)(5789.906mil,1675.59mil) on Top Overlay Silk Text to Silk Clearance [5.848mil]
   Violation between Silk To Silk Clearance Constraint: (9.293mil < 10mil) Between Text "HP4" (5398.568mil,1690.787mil) on Top Overlay And Track (5207.23mil,1675.59mil)(5789.906mil,1675.59mil) on Top Overlay Silk Text to Silk Clearance [9.293mil]
   Violation between Silk To Silk Clearance Constraint: (0.657mil < 10mil) Between Text "XADCpwr" (5240mil,4690mil) on Top Overlay And Track (5085mil,4660mil)(5485mil,4660mil) on Top Overlay Silk Text to Silk Clearance [0.657mil]
   Violation between Silk To Silk Clearance Constraint: (2.251mil < 10mil) Between Text "XADCpwr" (5240mil,4690mil) on Top Overlay And Track (5485mil,4560mil)(5485mil,4660mil) on Top Overlay Silk Text to Silk Clearance [2.251mil]
   Violation between Silk To Silk Clearance Constraint: (9.377mil < 10mil) Between Text "FLT4" (3507mil,2428mil) on Top Overlay And Track (3130mil,2630mil)(3730mil,2630mil) on Top Overlay Silk Text to Silk Clearance [9.377mil]
   Violation between Silk To Silk Clearance Constraint: (9.377mil < 10mil) Between Text "FLT3" (3414mil,2428mil) on Top Overlay And Track (3130mil,2630mil)(3730mil,2630mil) on Top Overlay Silk Text to Silk Clearance [9.377mil]
   Violation between Silk To Silk Clearance Constraint: (9.377mil < 10mil) Between Text "FLT2" (3307mil,2428mil) on Top Overlay And Track (3130mil,2630mil)(3730mil,2630mil) on Top Overlay Silk Text to Silk Clearance [9.377mil]
   Violation between Silk To Silk Clearance Constraint: (9.377mil < 10mil) Between Text "RFBP1" (3708mil,2394.677mil) on Top Overlay And Track (3130mil,2630mil)(3730mil,2630mil) on Top Overlay Silk Text to Silk Clearance [9.377mil]
   Violation between Silk To Silk Clearance Constraint: (9.377mil < 10mil) Between Text "AOUT1" (3606mil,2394.677mil) on Top Overlay And Track (3130mil,2630mil)(3730mil,2630mil) on Top Overlay Silk Text to Silk Clearance [9.377mil]
   Violation between Silk To Silk Clearance Constraint: (9.393mil < 10mil) Between Text "AOUT2" (6723mil,2923mil) on Top Overlay And Track (6550mil,3175mil)(6850mil,3175mil) on Top Overlay Silk Text to Silk Clearance [9.393mil]
Rule Violations :12

Processing Rule : Silk To Solder Mask (Clearance=10mil) (IsPad),(All)
   Violation between Silk To Solder Mask Clearance Constraint: (3.938mil < 10mil) Between Track (3727.126mil,2221.22mil)(3742.874mil,2221.22mil) on Top Overlay And Pad R18-1(3764.528mil,2235mil) on Top Layer [Top Overlay] to [Top Solder] clearance [3.938mil]
   Violation between Silk To Solder Mask Clearance Constraint: (3.938mil < 10mil) Between Track (3727.126mil,2248.78mil)(3742.874mil,2248.78mil) on Top Overlay And Pad R18-1(3764.528mil,2235mil) on Top Layer [Top Overlay] to [Top Solder] clearance [3.938mil]
   Violation between Silk To Solder Mask Clearance Constraint: (3.938mil < 10mil) Between Track (3727.126mil,2221.22mil)(3742.874mil,2221.22mil) on Top Overlay And Pad R18-2(3705.472mil,2235mil) on Top Layer [Top Overlay] to [Top Solder] clearance [3.938mil]
   Violation between Silk To Solder Mask Clearance Constraint: (3.938mil < 10mil) Between Track (3727.126mil,2248.78mil)(3742.874mil,2248.78mil) on Top Overlay And Pad R18-2(3705.472mil,2235mil) on Top Layer [Top Overlay] to [Top Solder] clearance [3.938mil]
   Violation between Silk To Solder Mask Clearance Constraint: (3.938mil < 10mil) Between Track (2502.126mil,2221.22mil)(2517.874mil,2221.22mil) on Top Overlay And Pad R12-1(2539.528mil,2235mil) on Top Layer [Top Overlay] to [Top Solder] clearance [3.938mil]
   Violation between Silk To Solder Mask Clearance Constraint: (3.938mil < 10mil) Between Track (2502.126mil,2248.78mil)(2517.874mil,2248.78mil) on Top Overlay And Pad R12-1(2539.528mil,2235mil) on Top Layer [Top Overlay] to [Top Solder] clearance [3.938mil]
   Violation between Silk To Solder Mask Clearance Constraint: (3.938mil < 10mil) Between Track (2502.126mil,2221.22mil)(2517.874mil,2221.22mil) on Top Overlay And Pad R12-2(2480.472mil,2235mil) on Top Layer [Top Overlay] to [Top Solder] clearance [3.938mil]
   Violation between Silk To Solder Mask Clearance Constraint: (3.938mil < 10mil) Between Track (2502.126mil,2248.78mil)(2517.874mil,2248.78mil) on Top Overlay And Pad R12-2(2480.472mil,2235mil) on Top Layer [Top Overlay] to [Top Solder] clearance [3.938mil]
   Violation between Silk To Solder Mask Clearance Constraint: (3.938mil < 10mil) Between Track (1262.126mil,2221.22mil)(1277.874mil,2221.22mil) on Top Overlay And Pad R5-1(1299.528mil,2235mil) on Top Layer [Top Overlay] to [Top Solder] clearance [3.938mil]
   Violation between Silk To Solder Mask Clearance Constraint: (3.938mil < 10mil) Between Track (1262.126mil,2248.78mil)(1277.874mil,2248.78mil) on Top Overlay And Pad R5-1(1299.528mil,2235mil) on Top Layer [Top Overlay] to [Top Solder] clearance [3.938mil]
   Violation between Silk To Solder Mask Clearance Constraint: (3.938mil < 10mil) Between Track (1262.126mil,2221.22mil)(1277.874mil,2221.22mil) on Top Overlay And Pad R5-2(1240.472mil,2235mil) on Top Layer [Top Overlay] to [Top Solder] clearance [3.938mil]
   Violation between Silk To Solder Mask Clearance Constraint: (3.938mil < 10mil) Between Track (1262.126mil,2248.78mil)(1277.874mil,2248.78mil) on Top Overlay And Pad R5-2(1240.472mil,2235mil) on Top Layer [Top Overlay] to [Top Solder] clearance [3.938mil]
   Violation between Silk To Solder Mask Clearance Constraint: (3.938mil < 10mil) Between Track (2287.126mil,2031.22mil)(2302.874mil,2031.22mil) on Top Overlay And Pad R13-1(2265.472mil,2045mil) on Top Layer [Top Overlay] to [Top Solder] clearance [3.938mil]
   Violation between Silk To Solder Mask Clearance Constraint: (3.938mil < 10mil) Between Track (2287.126mil,2058.78mil)(2302.874mil,2058.78mil) on Top Overlay And Pad R13-1(2265.472mil,2045mil) on Top Layer [Top Overlay] to [Top Solder] clearance [3.938mil]
   Violation between Silk To Solder Mask Clearance Constraint: (3.938mil < 10mil) Between Track (2287.126mil,2031.22mil)(2302.874mil,2031.22mil) on Top Overlay And Pad R13-2(2324.528mil,2045mil) on Top Layer [Top Overlay] to [Top Solder] clearance [3.938mil]
   Violation between Silk To Solder Mask Clearance Constraint: (3.938mil < 10mil) Between Track (2287.126mil,2058.78mil)(2302.874mil,2058.78mil) on Top Overlay And Pad R13-2(2324.528mil,2045mil) on Top Layer [Top Overlay] to [Top Solder] clearance [3.938mil]
   Violation between Silk To Solder Mask Clearance Constraint: (3.938mil < 10mil) Between Track (2507.126mil,2031.22mil)(2522.874mil,2031.22mil) on Top Overlay And Pad R11-1(2485.472mil,2045mil) on Top Layer [Top Overlay] to [Top Solder] clearance [3.938mil]
   Violation between Silk To Solder Mask Clearance Constraint: (3.938mil < 10mil) Between Track (2507.126mil,2058.78mil)(2522.874mil,2058.78mil) on Top Overlay And Pad R11-1(2485.472mil,2045mil) on Top Layer [Top Overlay] to [Top Solder] clearance [3.938mil]
   Violation between Silk To Solder Mask Clearance Constraint: (3.938mil < 10mil) Between Track (2507.126mil,2031.22mil)(2522.874mil,2031.22mil) on Top Overlay And Pad R11-2(2544.528mil,2045mil) on Top Layer [Top Overlay] to [Top Solder] clearance [3.938mil]
   Violation between Silk To Solder Mask Clearance Constraint: (3.938mil < 10mil) Between Track (2507.126mil,2058.78mil)(2522.874mil,2058.78mil) on Top Overlay And Pad R11-2(2544.528mil,2045mil) on Top Layer [Top Overlay] to [Top Solder] clearance [3.938mil]
   Violation between Silk To Solder Mask Clearance Constraint: (3.938mil < 10mil) Between Track (1262.126mil,2031.22mil)(1277.874mil,2031.22mil) on Top Overlay And Pad R4-1(1240.472mil,2045mil) on Top Layer [Top Overlay] to [Top Solder] clearance [3.938mil]
   Violation between Silk To Solder Mask Clearance Constraint: (3.938mil < 10mil) Between Track (1262.126mil,2058.78mil)(1277.874mil,2058.78mil) on Top Overlay And Pad R4-1(1240.472mil,2045mil) on Top Layer [Top Overlay] to [Top Solder] clearance [3.938mil]
   Violation between Silk To Solder Mask Clearance Constraint: (3.938mil < 10mil) Between Track (1262.126mil,2031.22mil)(1277.874mil,2031.22mil) on Top Overlay And Pad R4-2(1299.528mil,2045mil) on Top Layer [Top Overlay] to [Top Solder] clearance [3.938mil]
   Violation between Silk To Solder Mask Clearance Constraint: (3.938mil < 10mil) Between Track (1262.126mil,2058.78mil)(1277.874mil,2058.78mil) on Top Overlay And Pad R4-2(1299.528mil,2045mil) on Top Layer [Top Overlay] to [Top Solder] clearance [3.938mil]
   Violation between Silk To Solder Mask Clearance Constraint: (3.938mil < 10mil) Between Track (1102.126mil,2031.22mil)(1117.874mil,2031.22mil) on Top Overlay And Pad R7-1(1080.472mil,2045mil) on Top Layer [Top Overlay] to [Top Solder] clearance [3.938mil]
   Violation between Silk To Solder Mask Clearance Constraint: (3.938mil < 10mil) Between Track (1102.126mil,2058.78mil)(1117.874mil,2058.78mil) on Top Overlay And Pad R7-1(1080.472mil,2045mil) on Top Layer [Top Overlay] to [Top Solder] clearance [3.938mil]
   Violation between Silk To Solder Mask Clearance Constraint: (3.938mil < 10mil) Between Track (1102.126mil,2031.22mil)(1117.874mil,2031.22mil) on Top Overlay And Pad R7-2(1139.528mil,2045mil) on Top Layer [Top Overlay] to [Top Solder] clearance [3.938mil]
   Violation between Silk To Solder Mask Clearance Constraint: (3.938mil < 10mil) Between Track (1102.126mil,2058.78mil)(1117.874mil,2058.78mil) on Top Overlay And Pad R7-2(1139.528mil,2045mil) on Top Layer [Top Overlay] to [Top Solder] clearance [3.938mil]
   Violation between Silk To Solder Mask Clearance Constraint: (3.938mil < 10mil) Between Track (6736.22mil,4142.126mil)(6736.22mil,4157.874mil) on Top Overlay And Pad A2D-1(6750mil,4179.528mil) on Top Layer [Top Overlay] to [Top Solder] clearance [3.938mil]
   Violation between Silk To Solder Mask Clearance Constraint: (3.938mil < 10mil) Between Track (6763.78mil,4142.126mil)(6763.78mil,4157.874mil) on Top Overlay And Pad A2D-1(6750mil,4179.528mil) on Top Layer [Top Overlay] to [Top Solder] clearance [3.938mil]
   Violation between Silk To Solder Mask Clearance Constraint: (3.938mil < 10mil) Between Track (6736.22mil,4142.126mil)(6736.22mil,4157.874mil) on Top Overlay And Pad A2D-2(6750mil,4120.472mil) on Top Layer [Top Overlay] to [Top Solder] clearance [3.938mil]
   Violation between Silk To Solder Mask Clearance Constraint: (3.938mil < 10mil) Between Track (6763.78mil,4142.126mil)(6763.78mil,4157.874mil) on Top Overlay And Pad A2D-2(6750mil,4120.472mil) on Top Layer [Top Overlay] to [Top Solder] clearance [3.938mil]
   Violation between Silk To Solder Mask Clearance Constraint: (3.938mil < 10mil) Between Track (4592.126mil,4456.22mil)(4607.874mil,4456.22mil) on Top Overlay And Pad IAV1-1(4629.528mil,4470mil) on Top Layer [Top Overlay] to [Top Solder] clearance [3.938mil]
   Violation between Silk To Solder Mask Clearance Constraint: (3.938mil < 10mil) Between Track (4592.126mil,4483.78mil)(4607.874mil,4483.78mil) on Top Overlay And Pad IAV1-1(4629.528mil,4470mil) on Top Layer [Top Overlay] to [Top Solder] clearance [3.938mil]
   Violation between Silk To Solder Mask Clearance Constraint: (3.938mil < 10mil) Between Track (4592.126mil,4456.22mil)(4607.874mil,4456.22mil) on Top Overlay And Pad IAV1-2(4570.472mil,4470mil) on Top Layer [Top Overlay] to [Top Solder] clearance [3.938mil]
   Violation between Silk To Solder Mask Clearance Constraint: (3.938mil < 10mil) Between Track (4592.126mil,4483.78mil)(4607.874mil,4483.78mil) on Top Overlay And Pad IAV1-2(4570.472mil,4470mil) on Top Layer [Top Overlay] to [Top Solder] clearance [3.938mil]
   Violation between Silk To Solder Mask Clearance Constraint: (3.938mil < 10mil) Between Track (4822.126mil,4456.22mil)(4837.874mil,4456.22mil) on Top Overlay And Pad EAV1-1(4800.472mil,4470mil) on Top Layer [Top Overlay] to [Top Solder] clearance [3.938mil]
   Violation between Silk To Solder Mask Clearance Constraint: (3.938mil < 10mil) Between Track (4822.126mil,4483.78mil)(4837.874mil,4483.78mil) on Top Overlay And Pad EAV1-1(4800.472mil,4470mil) on Top Layer [Top Overlay] to [Top Solder] clearance [3.938mil]
   Violation between Silk To Solder Mask Clearance Constraint: (3.938mil < 10mil) Between Track (4822.126mil,4456.22mil)(4837.874mil,4456.22mil) on Top Overlay And Pad EAV1-2(4859.528mil,4470mil) on Top Layer [Top Overlay] to [Top Solder] clearance [3.938mil]
   Violation between Silk To Solder Mask Clearance Constraint: (3.938mil < 10mil) Between Track (4822.126mil,4483.78mil)(4837.874mil,4483.78mil) on Top Overlay And Pad EAV1-2(4859.528mil,4470mil) on Top Layer [Top Overlay] to [Top Solder] clearance [3.938mil]
   Violation between Silk To Solder Mask Clearance Constraint: (3.936mil < 10mil) Between Track (4592.126mil,4613.78mil)(4607.874mil,4613.78mil) on Top Overlay And Pad IDV1-1(4629.526mil,4600mil) on Top Layer [Top Overlay] to [Top Solder] clearance [3.936mil]
   Violation between Silk To Solder Mask Clearance Constraint: (3.936mil < 10mil) Between Track (4592.126mil,4586.22mil)(4607.874mil,4586.22mil) on Top Overlay And Pad IDV1-1(4629.526mil,4600mil) on Top Layer [Top Overlay] to [Top Solder] clearance [3.936mil]
   Violation between Silk To Solder Mask Clearance Constraint: (3.938mil < 10mil) Between Track (4592.126mil,4613.78mil)(4607.874mil,4613.78mil) on Top Overlay And Pad IDV1-2(4570.472mil,4600mil) on Top Layer [Top Overlay] to [Top Solder] clearance [3.938mil]
   Violation between Silk To Solder Mask Clearance Constraint: (3.938mil < 10mil) Between Track (4592.126mil,4586.22mil)(4607.874mil,4586.22mil) on Top Overlay And Pad IDV1-2(4570.472mil,4600mil) on Top Layer [Top Overlay] to [Top Solder] clearance [3.938mil]
   Violation between Silk To Solder Mask Clearance Constraint: (3.938mil < 10mil) Between Track (4822.126mil,4581.22mil)(4837.874mil,4581.22mil) on Top Overlay And Pad EDV1-1(4800.472mil,4595mil) on Top Layer [Top Overlay] to [Top Solder] clearance [3.938mil]
   Violation between Silk To Solder Mask Clearance Constraint: (3.938mil < 10mil) Between Track (4822.126mil,4608.78mil)(4837.874mil,4608.78mil) on Top Overlay And Pad EDV1-1(4800.472mil,4595mil) on Top Layer [Top Overlay] to [Top Solder] clearance [3.938mil]
   Violation between Silk To Solder Mask Clearance Constraint: (3.938mil < 10mil) Between Track (4822.126mil,4581.22mil)(4837.874mil,4581.22mil) on Top Overlay And Pad EDV1-2(4859.528mil,4595mil) on Top Layer [Top Overlay] to [Top Solder] clearance [3.938mil]
   Violation between Silk To Solder Mask Clearance Constraint: (3.938mil < 10mil) Between Track (4822.126mil,4608.78mil)(4837.874mil,4608.78mil) on Top Overlay And Pad EDV1-2(4859.528mil,4595mil) on Top Layer [Top Overlay] to [Top Solder] clearance [3.938mil]
   Violation between Silk To Solder Mask Clearance Constraint: (3.938mil < 10mil) Between Track (2267.126mil,2773.78mil)(2282.874mil,2773.78mil) on Top Overlay And Pad S2-1(2304.528mil,2760mil) on Top Layer [Top Overlay] to [Top Solder] clearance [3.938mil]
   Violation between Silk To Solder Mask Clearance Constraint: (3.938mil < 10mil) Between Track (2267.126mil,2746.22mil)(2282.874mil,2746.22mil) on Top Overlay And Pad S2-1(2304.528mil,2760mil) on Top Layer [Top Overlay] to [Top Solder] clearance [3.938mil]
   Violation between Silk To Solder Mask Clearance Constraint: (3.938mil < 10mil) Between Track (2267.126mil,2773.78mil)(2282.874mil,2773.78mil) on Top Overlay And Pad S2-2(2245.472mil,2760mil) on Top Layer [Top Overlay] to [Top Solder] clearance [3.938mil]
   Violation between Silk To Solder Mask Clearance Constraint: (3.938mil < 10mil) Between Track (2267.126mil,2746.22mil)(2282.874mil,2746.22mil) on Top Overlay And Pad S2-2(2245.472mil,2760mil) on Top Layer [Top Overlay] to [Top Solder] clearance [3.938mil]
   Violation between Silk To Solder Mask Clearance Constraint: (3.938mil < 10mil) Between Track (2267.126mil,2593.78mil)(2282.874mil,2593.78mil) on Top Overlay And Pad D2-1(2304.528mil,2580mil) on Top Layer [Top Overlay] to [Top Solder] clearance [3.938mil]
   Violation between Silk To Solder Mask Clearance Constraint: (3.938mil < 10mil) Between Track (2267.126mil,2566.22mil)(2282.874mil,2566.22mil) on Top Overlay And Pad D2-1(2304.528mil,2580mil) on Top Layer [Top Overlay] to [Top Solder] clearance [3.938mil]
   Violation between Silk To Solder Mask Clearance Constraint: (3.938mil < 10mil) Between Track (2267.126mil,2593.78mil)(2282.874mil,2593.78mil) on Top Overlay And Pad D2-2(2245.472mil,2580mil) on Top Layer [Top Overlay] to [Top Solder] clearance [3.938mil]
   Violation between Silk To Solder Mask Clearance Constraint: (3.938mil < 10mil) Between Track (2267.126mil,2566.22mil)(2282.874mil,2566.22mil) on Top Overlay And Pad D2-2(2245.472mil,2580mil) on Top Layer [Top Overlay] to [Top Solder] clearance [3.938mil]
   Violation between Silk To Solder Mask Clearance Constraint: (3.938mil < 10mil) Between Track (6307.126mil,2861.22mil)(6322.874mil,2861.22mil) on Top Overlay And Pad D5-1(6344.528mil,2875mil) on Top Layer [Top Overlay] to [Top Solder] clearance [3.938mil]
   Violation between Silk To Solder Mask Clearance Constraint: (3.938mil < 10mil) Between Track (6307.126mil,2888.78mil)(6322.874mil,2888.78mil) on Top Overlay And Pad D5-1(6344.528mil,2875mil) on Top Layer [Top Overlay] to [Top Solder] clearance [3.938mil]
   Violation between Silk To Solder Mask Clearance Constraint: (3.938mil < 10mil) Between Track (6307.126mil,2861.22mil)(6322.874mil,2861.22mil) on Top Overlay And Pad D5-2(6285.472mil,2875mil) on Top Layer [Top Overlay] to [Top Solder] clearance [3.938mil]
   Violation between Silk To Solder Mask Clearance Constraint: (3.938mil < 10mil) Between Track (6307.126mil,2888.78mil)(6322.874mil,2888.78mil) on Top Overlay And Pad D5-2(6285.472mil,2875mil) on Top Layer [Top Overlay] to [Top Solder] clearance [3.938mil]
   Violation between Silk To Solder Mask Clearance Constraint: (3.938mil < 10mil) Between Track (6307.126mil,3016.22mil)(6322.874mil,3016.22mil) on Top Overlay And Pad S5-1(6344.528mil,3030mil) on Top Layer [Top Overlay] to [Top Solder] clearance [3.938mil]
   Violation between Silk To Solder Mask Clearance Constraint: (3.938mil < 10mil) Between Track (6307.126mil,3043.78mil)(6322.874mil,3043.78mil) on Top Overlay And Pad S5-1(6344.528mil,3030mil) on Top Layer [Top Overlay] to [Top Solder] clearance [3.938mil]
   Violation between Silk To Solder Mask Clearance Constraint: (3.938mil < 10mil) Between Track (6307.126mil,3016.22mil)(6322.874mil,3016.22mil) on Top Overlay And Pad S5-2(6285.472mil,3030mil) on Top Layer [Top Overlay] to [Top Solder] clearance [3.938mil]
   Violation between Silk To Solder Mask Clearance Constraint: (3.938mil < 10mil) Between Track (6307.126mil,3043.78mil)(6322.874mil,3043.78mil) on Top Overlay And Pad S5-2(6285.472mil,3030mil) on Top Layer [Top Overlay] to [Top Solder] clearance [3.938mil]
   Violation between Silk To Solder Mask Clearance Constraint: (3.938mil < 10mil) Between Track (1192.126mil,2773.78mil)(1207.874mil,2773.78mil) on Top Overlay And Pad S1-1(1229.528mil,2760mil) on Top Layer [Top Overlay] to [Top Solder] clearance [3.938mil]
   Violation between Silk To Solder Mask Clearance Constraint: (3.938mil < 10mil) Between Track (1192.126mil,2746.22mil)(1207.874mil,2746.22mil) on Top Overlay And Pad S1-1(1229.528mil,2760mil) on Top Layer [Top Overlay] to [Top Solder] clearance [3.938mil]
   Violation between Silk To Solder Mask Clearance Constraint: (3.938mil < 10mil) Between Track (1192.126mil,2773.78mil)(1207.874mil,2773.78mil) on Top Overlay And Pad S1-2(1170.472mil,2760mil) on Top Layer [Top Overlay] to [Top Solder] clearance [3.938mil]
   Violation between Silk To Solder Mask Clearance Constraint: (3.938mil < 10mil) Between Track (1192.126mil,2746.22mil)(1207.874mil,2746.22mil) on Top Overlay And Pad S1-2(1170.472mil,2760mil) on Top Layer [Top Overlay] to [Top Solder] clearance [3.938mil]
   Violation between Silk To Solder Mask Clearance Constraint: (3.938mil < 10mil) Between Track (1192.126mil,2593.78mil)(1207.874mil,2593.78mil) on Top Overlay And Pad D1-1(1229.528mil,2580mil) on Top Layer [Top Overlay] to [Top Solder] clearance [3.938mil]
   Violation between Silk To Solder Mask Clearance Constraint: (3.938mil < 10mil) Between Track (1192.126mil,2566.22mil)(1207.874mil,2566.22mil) on Top Overlay And Pad D1-1(1229.528mil,2580mil) on Top Layer [Top Overlay] to [Top Solder] clearance [3.938mil]
   Violation between Silk To Solder Mask Clearance Constraint: (3.938mil < 10mil) Between Track (1192.126mil,2593.78mil)(1207.874mil,2593.78mil) on Top Overlay And Pad D1-2(1170.472mil,2580mil) on Top Layer [Top Overlay] to [Top Solder] clearance [3.938mil]
   Violation between Silk To Solder Mask Clearance Constraint: (3.938mil < 10mil) Between Track (1192.126mil,2566.22mil)(1207.874mil,2566.22mil) on Top Overlay And Pad D1-2(1170.472mil,2580mil) on Top Layer [Top Overlay] to [Top Solder] clearance [3.938mil]
   Violation between Silk To Solder Mask Clearance Constraint: (3.938mil < 10mil) Between Track (3822.126mil,2763.78mil)(3837.874mil,2763.78mil) on Top Overlay And Pad S3-1(3859.528mil,2750mil) on Top Layer [Top Overlay] to [Top Solder] clearance [3.938mil]
   Violation between Silk To Solder Mask Clearance Constraint: (3.938mil < 10mil) Between Track (3822.126mil,2736.22mil)(3837.874mil,2736.22mil) on Top Overlay And Pad S3-1(3859.528mil,2750mil) on Top Layer [Top Overlay] to [Top Solder] clearance [3.938mil]
   Violation between Silk To Solder Mask Clearance Constraint: (3.938mil < 10mil) Between Track (3822.126mil,2763.78mil)(3837.874mil,2763.78mil) on Top Overlay And Pad S3-2(3800.472mil,2750mil) on Top Layer [Top Overlay] to [Top Solder] clearance [3.938mil]
   Violation between Silk To Solder Mask Clearance Constraint: (3.938mil < 10mil) Between Track (3822.126mil,2736.22mil)(3837.874mil,2736.22mil) on Top Overlay And Pad S3-2(3800.472mil,2750mil) on Top Layer [Top Overlay] to [Top Solder] clearance [3.938mil]
   Violation between Silk To Solder Mask Clearance Constraint: (3.938mil < 10mil) Between Track (3822.126mil,2583.78mil)(3837.874mil,2583.78mil) on Top Overlay And Pad D3-1(3859.528mil,2570mil) on Top Layer [Top Overlay] to [Top Solder] clearance [3.938mil]
   Violation between Silk To Solder Mask Clearance Constraint: (3.938mil < 10mil) Between Track (3822.126mil,2556.22mil)(3837.874mil,2556.22mil) on Top Overlay And Pad D3-1(3859.528mil,2570mil) on Top Layer [Top Overlay] to [Top Solder] clearance [3.938mil]
   Violation between Silk To Solder Mask Clearance Constraint: (3.938mil < 10mil) Between Track (3822.126mil,2583.78mil)(3837.874mil,2583.78mil) on Top Overlay And Pad D3-2(3800.472mil,2570mil) on Top Layer [Top Overlay] to [Top Solder] clearance [3.938mil]
   Violation between Silk To Solder Mask Clearance Constraint: (3.938mil < 10mil) Between Track (3822.126mil,2556.22mil)(3837.874mil,2556.22mil) on Top Overlay And Pad D3-2(3800.472mil,2570mil) on Top Layer [Top Overlay] to [Top Solder] clearance [3.938mil]
   Violation between Silk To Solder Mask Clearance Constraint: (3.938mil < 10mil) Between Track (5227.126mil,3016.22mil)(5242.874mil,3016.22mil) on Top Overlay And Pad S4-1(5264.528mil,3030mil) on Top Layer [Top Overlay] to [Top Solder] clearance [3.938mil]
   Violation between Silk To Solder Mask Clearance Constraint: (3.938mil < 10mil) Between Track (5227.126mil,3043.78mil)(5242.874mil,3043.78mil) on Top Overlay And Pad S4-1(5264.528mil,3030mil) on Top Layer [Top Overlay] to [Top Solder] clearance [3.938mil]
   Violation between Silk To Solder Mask Clearance Constraint: (3.938mil < 10mil) Between Track (5227.126mil,3016.22mil)(5242.874mil,3016.22mil) on Top Overlay And Pad S4-2(5205.472mil,3030mil) on Top Layer [Top Overlay] to [Top Solder] clearance [3.938mil]
   Violation between Silk To Solder Mask Clearance Constraint: (3.938mil < 10mil) Between Track (5227.126mil,3043.78mil)(5242.874mil,3043.78mil) on Top Overlay And Pad S4-2(5205.472mil,3030mil) on Top Layer [Top Overlay] to [Top Solder] clearance [3.938mil]
   Violation between Silk To Solder Mask Clearance Constraint: (3.938mil < 10mil) Between Track (5227.126mil,2861.22mil)(5242.874mil,2861.22mil) on Top Overlay And Pad D4-1(5264.528mil,2875mil) on Top Layer [Top Overlay] to [Top Solder] clearance [3.938mil]
   Violation between Silk To Solder Mask Clearance Constraint: (3.938mil < 10mil) Between Track (5227.126mil,2888.78mil)(5242.874mil,2888.78mil) on Top Overlay And Pad D4-1(5264.528mil,2875mil) on Top Layer [Top Overlay] to [Top Solder] clearance [3.938mil]
   Violation between Silk To Solder Mask Clearance Constraint: (3.938mil < 10mil) Between Track (5227.126mil,2861.22mil)(5242.874mil,2861.22mil) on Top Overlay And Pad D4-2(5205.472mil,2875mil) on Top Layer [Top Overlay] to [Top Solder] clearance [3.938mil]
   Violation between Silk To Solder Mask Clearance Constraint: (3.938mil < 10mil) Between Track (5227.126mil,2888.78mil)(5242.874mil,2888.78mil) on Top Overlay And Pad D4-2(5205.472mil,2875mil) on Top Layer [Top Overlay] to [Top Solder] clearance [3.938mil]
   Violation between Silk To Solder Mask Clearance Constraint: (3.938mil < 10mil) Between Track (1822.126mil,2746.22mil)(1837.874mil,2746.22mil) on Top Overlay And Pad IF1-1(1800.472mil,2760mil) on Top Layer [Top Overlay] to [Top Solder] clearance [3.938mil]
   Violation between Silk To Solder Mask Clearance Constraint: (3.938mil < 10mil) Between Track (1822.126mil,2773.78mil)(1837.874mil,2773.78mil) on Top Overlay And Pad IF1-1(1800.472mil,2760mil) on Top Layer [Top Overlay] to [Top Solder] clearance [3.938mil]
   Violation between Silk To Solder Mask Clearance Constraint: (3.938mil < 10mil) Between Track (1822.126mil,2746.22mil)(1837.874mil,2746.22mil) on Top Overlay And Pad IF1-2(1859.528mil,2760mil) on Top Layer [Top Overlay] to [Top Solder] clearance [3.938mil]
   Violation between Silk To Solder Mask Clearance Constraint: (3.938mil < 10mil) Between Track (1822.126mil,2773.78mil)(1837.874mil,2773.78mil) on Top Overlay And Pad IF1-2(1859.528mil,2760mil) on Top Layer [Top Overlay] to [Top Solder] clearance [3.938mil]
   Violation between Silk To Solder Mask Clearance Constraint: (3.938mil < 10mil) Between Track (1822.126mil,2593.78mil)(1837.874mil,2593.78mil) on Top Overlay And Pad XF1-1(1859.528mil,2580mil) on Top Layer [Top Overlay] to [Top Solder] clearance [3.938mil]
   Violation between Silk To Solder Mask Clearance Constraint: (3.938mil < 10mil) Between Track (1822.126mil,2566.22mil)(1837.874mil,2566.22mil) on Top Overlay And Pad XF1-1(1859.528mil,2580mil) on Top Layer [Top Overlay] to [Top Solder] clearance [3.938mil]
   Violation between Silk To Solder Mask Clearance Constraint: (3.938mil < 10mil) Between Track (1822.126mil,2593.78mil)(1837.874mil,2593.78mil) on Top Overlay And Pad XF1-2(1800.472mil,2580mil) on Top Layer [Top Overlay] to [Top Solder] clearance [3.938mil]
   Violation between Silk To Solder Mask Clearance Constraint: (3.938mil < 10mil) Between Track (1822.126mil,2566.22mil)(1837.874mil,2566.22mil) on Top Overlay And Pad XF1-2(1800.472mil,2580mil) on Top Layer [Top Overlay] to [Top Solder] clearance [3.938mil]
   Violation between Silk To Solder Mask Clearance Constraint: (3.938mil < 10mil) Between Track (1162.126mil,1568.78mil)(1177.874mil,1568.78mil) on Top Overlay And Pad HP1I-1(1199.528mil,1555mil) on Top Layer [Top Overlay] to [Top Solder] clearance [3.938mil]
   Violation between Silk To Solder Mask Clearance Constraint: (3.938mil < 10mil) Between Track (1162.126mil,1541.22mil)(1177.874mil,1541.22mil) on Top Overlay And Pad HP1I-1(1199.528mil,1555mil) on Top Layer [Top Overlay] to [Top Solder] clearance [3.938mil]
   Violation between Silk To Solder Mask Clearance Constraint: (3.938mil < 10mil) Between Track (1162.126mil,1568.78mil)(1177.874mil,1568.78mil) on Top Overlay And Pad HP1I-2(1140.472mil,1555mil) on Top Layer [Top Overlay] to [Top Solder] clearance [3.938mil]
   Violation between Silk To Solder Mask Clearance Constraint: (3.938mil < 10mil) Between Track (1162.126mil,1541.22mil)(1177.874mil,1541.22mil) on Top Overlay And Pad HP1I-2(1140.472mil,1555mil) on Top Layer [Top Overlay] to [Top Solder] clearance [3.938mil]
   Violation between Silk To Solder Mask Clearance Constraint: (3.938mil < 10mil) Between Track (1162.126mil,1366.22mil)(1177.874mil,1366.22mil) on Top Overlay And Pad HP1O-1(1140.472mil,1380mil) on Top Layer [Top Overlay] to [Top Solder] clearance [3.938mil]
   Violation between Silk To Solder Mask Clearance Constraint: (3.938mil < 10mil) Between Track (1162.126mil,1393.78mil)(1177.874mil,1393.78mil) on Top Overlay And Pad HP1O-1(1140.472mil,1380mil) on Top Layer [Top Overlay] to [Top Solder] clearance [3.938mil]
   Violation between Silk To Solder Mask Clearance Constraint: (3.938mil < 10mil) Between Track (1162.126mil,1366.22mil)(1177.874mil,1366.22mil) on Top Overlay And Pad HP1O-2(1199.528mil,1380mil) on Top Layer [Top Overlay] to [Top Solder] clearance [3.938mil]