Layer Pairs Export File for PCB: C:\Users\Flor\Documents\Capstone\HydroDynamixRepo\HydroDynamix\HANC_Analog\HANC_ANALOG.PcbDoc
LayersSetName=Top_Bot_Thru_Holes|DrillFile=hanc_analog.txt|DrillLayers=gtl,gbl
